<edges>
    <edge id="E0" from="J1" to="J0" priority="2" numLanes="1" speed="13.89"/>
    <edge id="E1" from="J2" to="J0" priority="2" numLanes="1" speed="13.89"/>
    <edge id="E2" from="J3" to="J0" priority="2" numLanes="1" speed="13.89"/>
    <edge id="E3" from="J4" to="J0" priority="2" numLanes="1" speed="13.89"/>
    
    <edge id="-E0" from="J0" to="J1" priority="2" numLanes="1" speed="13.89"/>
    <edge id="-E1" from="J0" to="J2" priority="2" numLanes="1" speed="13.89"/>
    <edge id="-E2" from="J0" to="J3" priority="2" numLanes="1" speed="13.89"/>
    <edge id="-E3" from="J0" to="J4" priority="2" numLanes="1" speed="13.89"/>
</edges>
