<?xml version="1.0" encoding="UTF-8"?>

<!-- generated on 2025-12-02T09:01:52.496864+05:30 by Eclipse SUMO netconvert 1.25.0
<netconvertConfiguration xmlns:xsi="http://www.w3.org/2001/XMLSchema-instance" xsi:noNamespaceSchemaLocation="http://sumo.dlr.de/xsd/netconvertConfiguration.xsd">

    <input>
        <node-files value="config/nodes.nod.xml"/>
        <edge-files value="config/edges.edg.xml"/>
    </input>

    <output>
        <output-file value="config/network.net.xml"/>
    </output>

</netconvertConfiguration>
-->

<net version="1.20" junctionCornerDetail="5" limitTurnSpeed="5.50" xmlns:xsi="http://www.w3.org/2001/XMLSchema-instance" xsi:noNamespaceSchemaLocation="http://sumo.dlr.de/xsd/net_file.xsd">

    <location netOffset="500.00,500.00" convBoundary="0.00,0.00,1000.00,1000.00" origBoundary="-500.00,-500.00,500.00,500.00" projParameter="!"/>

    <edge id=":J0_0" function="internal">
        <lane id=":J0_0_0" index="0" speed="6.51" length="9.03" shape="498.40,507.20 498.05,504.75 497.00,503.00 495.25,501.95 492.80,501.60"/>
    </edge>
    <edge id=":J0_1" function="internal">
        <lane id=":J0_1_0" index="0" speed="13.89" length="14.40" shape="498.40,507.20 498.40,492.80"/>
    </edge>
    <edge id=":J0_2" function="internal">
        <lane id=":J0_2_0" index="0" speed="8.00" length="4.07" shape="498.40,507.20 498.95,503.35 499.04,503.20"/>
    </edge>
    <edge id=":J0_3" function="internal">
        <lane id=":J0_3_0" index="0" speed="3.65" length="1.44" shape="498.40,507.20 499.20,506.00"/>
    </edge>
    <edge id=":J0_16" function="internal">
        <lane id=":J0_16_0" index="0" speed="8.00" length="10.13" shape="499.04,503.20 500.60,500.60 503.35,498.95 507.20,498.40"/>
    </edge>
    <edge id=":J0_17" function="internal">
        <lane id=":J0_17_0" index="0" speed="3.65" length="3.23" shape="499.20,506.00 500.00,505.60 500.80,506.00 501.60,507.20"/>
    </edge>
    <edge id=":J0_4" function="internal">
        <lane id=":J0_4_0" index="0" speed="6.51" length="9.03" shape="507.20,501.60 504.75,501.95 503.00,503.00 501.95,504.75 501.60,507.20"/>
    </edge>
    <edge id=":J0_5" function="internal">
        <lane id=":J0_5_0" index="0" speed="13.89" length="14.40" shape="507.20,501.60 492.80,501.60"/>
    </edge>
    <edge id=":J0_6" function="internal">
        <lane id=":J0_6_0" index="0" speed="8.00" length="4.07" shape="507.20,501.60 503.35,501.05 503.20,500.96"/>
    </edge>
    <edge id=":J0_7" function="internal">
        <lane id=":J0_7_0" index="0" speed="3.65" length="1.44" shape="507.20,501.60 506.00,500.80"/>
    </edge>
    <edge id=":J0_18" function="internal">
        <lane id=":J0_18_0" index="0" speed="8.00" length="10.13" shape="503.20,500.96 500.60,499.40 498.95,496.65 498.40,492.80"/>
    </edge>
    <edge id=":J0_19" function="internal">
        <lane id=":J0_19_0" index="0" speed="3.65" length="3.23" shape="506.00,500.80 505.60,500.00 506.00,499.20 507.20,498.40"/>
    </edge>
    <edge id=":J0_8" function="internal">
        <lane id=":J0_8_0" index="0" speed="6.51" length="9.03" shape="501.60,492.80 501.95,495.25 503.00,497.00 504.75,498.05 507.20,498.40"/>
    </edge>
    <edge id=":J0_9" function="internal">
        <lane id=":J0_9_0" index="0" speed="13.89" length="14.40" shape="501.60,492.80 501.60,507.20"/>
    </edge>
    <edge id=":J0_10" function="internal">
        <lane id=":J0_10_0" index="0" speed="8.00" length="4.07" shape="501.60,492.80 501.05,496.65 500.96,496.80"/>
    </edge>
    <edge id=":J0_11" function="internal">
        <lane id=":J0_11_0" index="0" speed="3.65" length="1.44" shape="501.60,492.80 500.80,494.00"/>
    </edge>
    <edge id=":J0_20" function="internal">
        <lane id=":J0_20_0" index="0" speed="8.00" length="10.13" shape="500.96,496.80 499.40,499.40 496.65,501.05 492.80,501.60"/>
    </edge>
    <edge id=":J0_21" function="internal">
        <lane id=":J0_21_0" index="0" speed="3.65" length="3.23" shape="500.80,494.00 500.00,494.40 499.20,494.00 498.40,492.80"/>
    </edge>
    <edge id=":J0_12" function="internal">
        <lane id=":J0_12_0" index="0" speed="6.51" length="9.03" shape="492.80,498.40 495.25,498.05 497.00,497.00 498.05,495.25 498.40,492.80"/>
    </edge>
    <edge id=":J0_13" function="internal">
        <lane id=":J0_13_0" index="0" speed="13.89" length="14.40" shape="492.80,498.40 507.20,498.40"/>
    </edge>
    <edge id=":J0_14" function="internal">
        <lane id=":J0_14_0" index="0" speed="8.00" length="4.07" shape="492.80,498.40 496.65,498.95 496.80,499.04"/>
    </edge>
    <edge id=":J0_15" function="internal">
        <lane id=":J0_15_0" index="0" speed="3.65" length="1.44" shape="492.80,498.40 494.00,499.20"/>
    </edge>
    <edge id=":J0_22" function="internal">
        <lane id=":J0_22_0" index="0" speed="8.00" length="10.13" shape="496.80,499.04 499.40,500.60 501.05,503.35 501.60,507.20"/>
    </edge>
    <edge id=":J0_23" function="internal">
        <lane id=":J0_23_0" index="0" speed="3.65" length="3.23" shape="494.00,499.20 494.40,500.00 494.00,500.80 492.80,501.60"/>
    </edge>
    <edge id=":J1_0" function="internal">
        <lane id=":J1_0_0" index="0" speed="3.65" length="4.67" shape="501.60,1000.00 500.80,1001.20 500.00,1001.60 499.20,1001.20 498.40,1000.00"/>
    </edge>
    <edge id=":J2_0" function="internal">
        <lane id=":J2_0_0" index="0" speed="3.65" length="4.67" shape="1000.00,498.40 1001.20,499.20 1001.60,500.00 1001.20,500.80 1000.00,501.60"/>
    </edge>
    <edge id=":J3_0" function="internal">
        <lane id=":J3_0_0" index="0" speed="3.65" length="4.67" shape="498.40,0.00 499.20,-1.20 500.00,-1.60 500.80,-1.20 501.60,0.00"/>
    </edge>
    <edge id=":J4_0" function="internal">
        <lane id=":J4_0_0" index="0" speed="3.65" length="4.67" shape="0.00,501.60 -1.20,500.80 -1.60,500.00 -1.20,499.20 0.00,498.40"/>
    </edge>

    <edge id="-E0" from="J0" to="J1" priority="2">
        <lane id="-E0_0" index="0" speed="13.89" length="492.80" shape="501.60,507.20 501.60,1000.00"/>
    </edge>
    <edge id="-E1" from="J0" to="J2" priority="2">
        <lane id="-E1_0" index="0" speed="13.89" length="492.80" shape="507.20,498.40 1000.00,498.40"/>
    </edge>
    <edge id="-E2" from="J0" to="J3" priority="2">
        <lane id="-E2_0" index="0" speed="13.89" length="492.80" shape="498.40,492.80 498.40,0.00"/>
    </edge>
    <edge id="-E3" from="J0" to="J4" priority="2">
        <lane id="-E3_0" index="0" speed="13.89" length="492.80" shape="492.80,501.60 0.00,501.60"/>
    </edge>
    <edge id="E0" from="J1" to="J0" priority="2">
        <lane id="E0_0" index="0" speed="13.89" length="492.80" shape="498.40,1000.00 498.40,507.20"/>
    </edge>
    <edge id="E1" from="J2" to="J0" priority="2">
        <lane id="E1_0" index="0" speed="13.89" length="492.80" shape="1000.00,501.60 507.20,501.60"/>
    </edge>
    <edge id="E2" from="J3" to="J0" priority="2">
        <lane id="E2_0" index="0" speed="13.89" length="492.80" shape="501.60,0.00 501.60,492.80"/>
    </edge>
    <edge id="E3" from="J4" to="J0" priority="2">
        <lane id="E3_0" index="0" speed="13.89" length="492.80" shape="0.00,498.40 492.80,498.40"/>
    </edge>

    <tlLogic id="J0" type="static" programID="0" offset="0">
        <phase duration="42" state="GGggrrrrGGggrrrr"/>
        <phase duration="3"  state="yyyyrrrryyyyrrrr"/>
        <phase duration="42" state="rrrrGGggrrrrGGgg"/>
        <phase duration="3"  state="rrrryyyyrrrryyyy"/>
    </tlLogic>

    <junction id="J0" type="traffic_light" x="500.00" y="500.00" incLanes="E0_0 E1_0 E2_0 E3_0" intLanes=":J0_0_0 :J0_1_0 :J0_16_0 :J0_17_0 :J0_4_0 :J0_5_0 :J0_18_0 :J0_19_0 :J0_8_0 :J0_9_0 :J0_20_0 :J0_21_0 :J0_12_0 :J0_13_0 :J0_22_0 :J0_23_0" shape="496.80,507.20 503.20,507.20 503.64,504.98 504.20,504.20 504.98,503.64 505.98,503.31 507.20,503.20 507.20,496.80 504.98,496.36 504.20,495.80 503.64,495.02 503.31,494.02 503.20,492.80 496.80,492.80 496.36,495.02 495.80,495.80 495.02,496.36 494.02,496.69 492.80,496.80 492.80,503.20 495.02,503.64 495.80,504.20 496.36,504.98 496.69,505.98">
        <request index="0"  response="0000000000000000" foes="1000010000100000" cont="0"/>
        <request index="1"  response="0100000001000000" foes="0111110001100000" cont="0"/>
        <request index="2"  response="0100011101000000" foes="0110011111100000" cont="1"/>
        <request index="3"  response="0100001000010000" foes="0100001000010000" cont="1"/>
        <request index="4"  response="0000001000000000" foes="0100001000001000" cont="0"/>
        <request index="5"  response="0000011000000111" foes="1100011000000111" cont="0"/>
        <request index="6"  response="0111011000000110" foes="0111111000000110" cont="1"/>
        <request index="7"  response="0010000100000100" foes="0010000100000100" cont="1"/>
        <request index="8"  response="0000000000000000" foes="0010000010000100" cont="0"/>
        <request index="9"  response="0100000001000000" foes="0110000001111100" cont="0"/>
        <request index="10" response="0100000001000011" foes="1110000001100111" cont="1"/>
        <request index="11" response="0001000001000010" foes="0001000001000010" cont="1"/>
        <request index="12" response="0000000000000010" foes="0000100001000010" cont="0"/>
        <request index="13" response="0000011100000110" foes="0000011111000110" cont="0"/>
        <request index="14" response="0000011000110110" foes="0000011001111110" cont="1"/>
        <request index="15" response="0000010000100001" foes="0000010000100001" cont="1"/>
    </junction>
    <junction id="J1" type="priority" x="500.00" y="1000.00" incLanes="-E0_0" intLanes=":J1_0_0" shape="500.00,1000.00 503.20,1000.00 500.00,1000.00">
        <request index="0" response="0" foes="0" cont="0"/>
    </junction>
    <junction id="J2" type="priority" x="1000.00" y="500.00" incLanes="-E1_0" intLanes=":J2_0_0" shape="1000.00,500.00 1000.00,496.80 1000.00,500.00">
        <request index="0" response="0" foes="0" cont="0"/>
    </junction>
    <junction id="J3" type="priority" x="500.00" y="0.00" incLanes="-E2_0" intLanes=":J3_0_0" shape="500.00,0.00 496.80,0.00 500.00,0.00">
        <request index="0" response="0" foes="0" cont="0"/>
    </junction>
    <junction id="J4" type="priority" x="0.00" y="500.00" incLanes="-E3_0" intLanes=":J4_0_0" shape="0.00,500.00 0.00,503.20 0.00,500.00">
        <request index="0" response="0" foes="0" cont="0"/>
    </junction>

    <junction id=":J0_16_0" type="internal" x="499.04" y="503.20" incLanes=":J0_2_0 E2_0" intLanes=":J0_5_0 :J0_6_0 :J0_7_0 :J0_8_0 :J0_9_0 :J0_13_0 :J0_14_0"/>
    <junction id=":J0_17_0" type="internal" x="499.20" y="506.00" incLanes=":J0_3_0 E1_0 E2_0 E3_0" intLanes=":J0_4_0 :J0_9_0 :J0_14_0"/>
    <junction id=":J0_18_0" type="internal" x="503.20" y="500.96" incLanes=":J0_6_0 E3_0" intLanes=":J0_1_0 :J0_2_0 :J0_9_0 :J0_10_0 :J0_11_0 :J0_12_0 :J0_13_0"/>
    <junction id=":J0_19_0" type="internal" x="506.00" y="500.80" incLanes=":J0_7_0 E0_0 E2_0 E3_0" intLanes=":J0_2_0 :J0_8_0 :J0_13_0"/>
    <junction id=":J0_20_0" type="internal" x="500.96" y="496.80" incLanes=":J0_10_0 E0_0" intLanes=":J0_0_0 :J0_1_0 :J0_5_0 :J0_6_0 :J0_13_0 :J0_14_0 :J0_15_0"/>
    <junction id=":J0_21_0" type="internal" x="500.80" y="494.00" incLanes=":J0_11_0 E0_0 E1_0 E3_0" intLanes=":J0_1_0 :J0_6_0 :J0_12_0"/>
    <junction id=":J0_22_0" type="internal" x="496.80" y="499.04" incLanes=":J0_14_0 E1_0" intLanes=":J0_1_0 :J0_2_0 :J0_3_0 :J0_4_0 :J0_5_0 :J0_9_0 :J0_10_0"/>
    <junction id=":J0_23_0" type="internal" x="494.00" y="499.20" incLanes=":J0_15_0 E0_0 E1_0 E2_0" intLanes=":J0_0_0 :J0_5_0 :J0_10_0"/>

    <connection from="-E0" to="E0" fromLane="0" toLane="0" via=":J1_0_0" dir="t" state="M"/>
    <connection from="-E1" to="E1" fromLane="0" toLane="0" via=":J2_0_0" dir="t" state="M"/>
    <connection from="-E2" to="E2" fromLane="0" toLane="0" via=":J3_0_0" dir="t" state="M"/>
    <connection from="-E3" to="E3" fromLane="0" toLane="0" via=":J4_0_0" dir="t" state="M"/>
    <connection from="E0" to="-E3" fromLane="0" toLane="0" via=":J0_0_0" tl="J0" linkIndex="0" dir="r" state="O"/>
    <connection from="E0" to="-E2" fromLane="0" toLane="0" via=":J0_1_0" tl="J0" linkIndex="1" dir="s" state="O"/>
    <connection from="E0" to="-E1" fromLane="0" toLane="0" via=":J0_2_0" tl="J0" linkIndex="2" dir="l" state="o"/>
    <connection from="E0" to="-E0" fromLane="0" toLane="0" via=":J0_3_0" tl="J0" linkIndex="3" dir="t" state="o"/>
    <connection from="E1" to="-E0" fromLane="0" toLane="0" via=":J0_4_0" tl="J0" linkIndex="4" dir="r" state="o"/>
    <connection from="E1" to="-E3" fromLane="0" toLane="0" via=":J0_5_0" tl="J0" linkIndex="5" dir="s" state="o"/>
    <connection from="E1" to="-E2" fromLane="0" toLane="0" via=":J0_6_0" tl="J0" linkIndex="6" dir="l" state="o"/>
    <connection from="E1" to="-E1" fromLane="0" toLane="0" via=":J0_7_0" tl="J0" linkIndex="7" dir="t" state="o"/>
    <connection from="E2" to="-E1" fromLane="0" toLane="0" via=":J0_8_0" tl="J0" linkIndex="8" dir="r" state="O"/>
    <connection from="E2" to="-E0" fromLane="0" toLane="0" via=":J0_9_0" tl="J0" linkIndex="9" dir="s" state="O"/>
    <connection from="E2" to="-E3" fromLane="0" toLane="0" via=":J0_10_0" tl="J0" linkIndex="10" dir="l" state="o"/>
    <connection from="E2" to="-E2" fromLane="0" toLane="0" via=":J0_11_0" tl="J0" linkIndex="11" dir="t" state="o"/>
    <connection from="E3" to="-E2" fromLane="0" toLane="0" via=":J0_12_0" tl="J0" linkIndex="12" dir="r" state="o"/>
    <connection from="E3" to="-E1" fromLane="0" toLane="0" via=":J0_13_0" tl="J0" linkIndex="13" dir="s" state="o"/>
    <connection from="E3" to="-E0" fromLane="0" toLane="0" via=":J0_14_0" tl="J0" linkIndex="14" dir="l" state="o"/>
    <connection from="E3" to="-E3" fromLane="0" toLane="0" via=":J0_15_0" tl="J0" linkIndex="15" dir="t" state="o"/>

    <connection from=":J0_0" to="-E3" fromLane="0" toLane="0" dir="r" state="M"/>
    <connection from=":J0_1" to="-E2" fromLane="0" toLane="0" dir="s" state="M"/>
    <connection from=":J0_2" to="-E1" fromLane="0" toLane="0" via=":J0_16_0" dir="l" state="m"/>
    <connection from=":J0_16" to="-E1" fromLane="0" toLane="0" dir="l" state="M"/>
    <connection from=":J0_3" to="-E0" fromLane="0" toLane="0" via=":J0_17_0" dir="t" state="m"/>
    <connection from=":J0_17" to="-E0" fromLane="0" toLane="0" dir="t" state="M"/>
    <connection from=":J0_4" to="-E0" fromLane="0" toLane="0" dir="r" state="M"/>
    <connection from=":J0_5" to="-E3" fromLane="0" toLane="0" dir="s" state="M"/>
    <connection from=":J0_6" to="-E2" fromLane="0" toLane="0" via=":J0_18_0" dir="l" state="m"/>
    <connection from=":J0_18" to="-E2" fromLane="0" toLane="0" dir="l" state="M"/>
    <connection from=":J0_7" to="-E1" fromLane="0" toLane="0" via=":J0_19_0" dir="t" state="m"/>
    <connection from=":J0_19" to="-E1" fromLane="0" toLane="0" dir="t" state="M"/>
    <connection from=":J0_8" to="-E1" fromLane="0" toLane="0" dir="r" state="M"/>
    <connection from=":J0_9" to="-E0" fromLane="0" toLane="0" dir="s" state="M"/>
    <connection from=":J0_10" to="-E3" fromLane="0" toLane="0" via=":J0_20_0" dir="l" state="m"/>
    <connection from=":J0_20" to="-E3" fromLane="0" toLane="0" dir="l" state="M"/>
    <connection from=":J0_11" to="-E2" fromLane="0" toLane="0" via=":J0_21_0" dir="t" state="m"/>
    <connection from=":J0_21" to="-E2" fromLane="0" toLane="0" dir="t" state="M"/>
    <connection from=":J0_12" to="-E2" fromLane="0" toLane="0" dir="r" state="M"/>
    <connection from=":J0_13" to="-E1" fromLane="0" toLane="0" dir="s" state="M"/>
    <connection from=":J0_14" to="-E0" fromLane="0" toLane="0" via=":J0_22_0" dir="l" state="m"/>
    <connection from=":J0_22" to="-E0" fromLane="0" toLane="0" dir="l" state="M"/>
    <connection from=":J0_15" to="-E3" fromLane="0" toLane="0" via=":J0_23_0" dir="t" state="m"/>
    <connection from=":J0_23" to="-E3" fromLane="0" toLane="0" dir="t" state="M"/>
    <connection from=":J1_0" to="E0" fromLane="0" toLane="0" dir="t" state="M"/>
    <connection from=":J2_0" to="E1" fromLane="0" toLane="0" dir="t" state="M"/>
    <connection from=":J3_0" to="E2" fromLane="0" toLane="0" dir="t" state="M"/>
    <connection from=":J4_0" to="E3" fromLane="0" toLane="0" dir="t" state="M"/>

</net>
