<nodes>
    <node id="J0" x="0.0" y="0.0" type="traffic_light"/>
    <node id="J1" x="0.0" y="500.0" type="priority"/>
    <node id="J2" x="500.0" y="0.0" type="priority"/>
    <node id="J3" x="0.0" y="-500.0" type="priority"/>
    <node id="J4" x="-500.0" y="0.0" type="priority"/>
</nodes>
