<?xml version="1.0" encoding="UTF-8"?>
<routes xmlns:xsi="http://www.w3.org/2001/XMLSchema-instance" xsi:noNamespaceSchemaLocation="http://sumo.dlr.de/xsd/routes_file.xsd">
    <route id="r_0" edges="E0 -E2"/>
    <route id="r_1" edges="E1 -E3"/>
    <route id="r_2" edges="E2 -E0"/>
    <route id="r_3" edges="E3 -E1"/>

    <flow id="f_0" route="r_0" begin="0" end="3600" vehsPerHour="500" departLane="best"/>
    <flow id="f_1" route="r_1" begin="0" end="3600" vehsPerHour="500" departLane="best"/>
    <flow id="f_2" route="r_2" begin="0" end="3600" vehsPerHour="500" departLane="best"/>
    <flow id="f_3" route="r_3" begin="0" end="3600" vehsPerHour="500" departLane="best"/>
</routes>
